%chk=harmonium.chk
%mem=2GB
%NProcShared=1
#P SP CISD/6-31G gfinput fchk=all out=wfx iop(9/40=7) iop(9/28=-1) use=l916 density=rhoci

harmonium CISD Calculation harmonium_omega_0.5 CISD 6-31G

-2 1
H-Bq 0.000000 0.000000 0.000000

harmonium.wfx

  ****

    0.0000000000D+00    0.0000000000D+00    0.0000000000D+00
   -0.1250000000   -0.1250000000   -0.1250000000
    0.0000000000D+00    0.0000000000D+00    0.0000000000D+00

    0.0000000000D+00    0.0000000000D+00    0.0000000000D+00

    0.0000000000D+00    0.0000000000D+00    0.0000000000D+00

    0.0000000000D+00    0.0000000000D+00    0.0000000000D+00

    0.0000000000D+00    0.0000000000D+00    0.0000000000D+00

    0.0000000000D+00    0.0000000000D+00    0.0000000000D+00

    0.0000000000D+00    0.0000000000D+00    0.0000000000D+00

    0.0000000000D+00    0.0000000000D+00    0.0000000000D+00

    0.0000000000D+00    0.0000000000D+00    0.0000000000D+00

