%chk=hecas10decpc4.chk
%mem=4GB
%NProcShared=1
#P SP CASSCF(2,2)/gen gfinput fchk=all density=current iop(5/33=1) out=wfx

hecas10decpc4 helium CASSCF(2,2) dec-pc-4

0 1
He    0.0000   0.0000   0.0000

He     0
S    5   1.00
      0.878020D+04           0.146640D-02
      0.131560D+04           0.113950D-01
      0.299460D+03           0.598190D-01
      0.848330D+02           0.250890D+00
      0.276910D+02           0.891350D+00
S    1   1.00
      0.100080D+02           0.100000D+01
S    1   1.00
      0.389240D+01           0.100000D+01
S    1   1.00
      0.158190D+01           0.100000D+01
S    1   1.00
      0.656980D+00           0.100000D+01
S    1   1.00
      0.264590D+00           0.100000D+01
S    1   1.00
      0.105850D+00           0.100000D+01
S    1   1.00
      0.392000D-01           0.100000D+01
P    1   1.00
      0.405000D+02           0.100000D+01
P    1   1.00
      0.890000D+01           0.100000D+01
P    1   1.00
      0.285000D+01           0.100000D+01
P    1   1.00
      0.130000D+01           0.100000D+01
P    1   1.00
      0.600000D+00           0.100000D+01
P    1   1.00
      0.200000D+00           0.100000D+01
P    1   1.00
      0.117600D+00           0.100000D+01
D    1   1.00
      0.370000D+01           0.100000D+01
D    1   1.00
      0.120000D+01           0.100000D+01
D    1   1.00
      0.500000D+00           0.100000D+01
D    1   1.00
      0.156800D+00           0.100000D+01
F    1   1.00
      0.410000D+01           0.100000D+01
F    1   1.00
      0.150000D+01           0.100000D+01
F    1   1.00
      0.196000D+00           0.100000D+01
G    1   1.00
      0.465000D+01           0.100000D+01
G    1   1.00
      0.235200D+00           0.100000D+01
 ****

hecas10decpc4.wfx

