%chk=ne1010decccpv6z.chk
%mem=4GB
%NProcShared=1
#P SP CASSCF(10,10)/gen gfinput fchk=all density=current iop(5/33=1) iop(4/21=100) out=wfx

ne1010decccpv6z neon CASSCF(10,10) dec-cc-pv6z

0 1
Ne 0.0 0.0 0.0

Ne     0
S    16   1.00
      9.024000D+05           5.510000D-06
      1.351000D+05           4.282000D-05
      3.075000D+04           2.251400D-04
      8.710000D+03           9.501600D-04
      2.842000D+03           3.447190D-03
      1.026000D+03           1.112545D-02
      4.001000D+02           3.220568D-02
      1.659000D+02           8.259891D-02
      7.221000D+01           1.799056D-01
      3.266000D+01           3.060521D-01
      1.522000D+01           3.401256D-01
      7.149000D+00           1.761682D-01
      2.957000D+00           2.101527D-02
      1.335000D+00          -5.074500D-04
      5.816000D-01           1.057850D-03
      2.463000D-01          -5.988000D-05
S    1   1.00
      7.149000D+00           1.000000D+00
S    1   1.00
      2.957000D+00           1.000000D+00
S    1   1.00
      1.335000D+00           1.000000D+00
S    16   1.00
      9.024000D+05          -1.290000D-06
      1.351000D+05          -1.005000D-05
      3.075000D+04          -5.293000D-05
      8.710000D+03          -2.231200D-04
      2.842000D+03          -8.133800D-04
      1.026000D+03          -2.632300D-03
      4.001000D+02          -7.759100D-03
      1.659000D+02          -2.045277D-02
      7.221000D+01          -4.797505D-02
      3.266000D+01          -9.340086D-02
      1.522000D+01          -1.427721D-01
      7.149000D+00          -1.022908D-01
      2.957000D+00           1.587858D-01
      1.335000D+00           4.494079D-01
      5.816000D-01           4.334854D-01
      2.463000D-01           1.215757D-01
S    1   1.00
      5.816000D-01           1.000000D+00
S    1   1.00
      2.463000D-01           1.000000D+00
S    1   1.00
      0.0869                 1.0000
P    1   1.00
      4.281000D+00           1.000000D+00
P    1   1.00
      1.915000D+00           1.000000D+00
P    10   1.00
      8.156000D+02           1.837600D-04
      1.933000D+02           1.585090D-03
      6.260000D+01           8.414640D-03
      2.361000D+01           3.220033D-02
      9.762000D+00           9.396390D-02
      4.281000D+00           2.004808D-01
      1.915000D+00           3.031137D-01
      8.476000D-01           3.297578D-01
      3.660000D-01           2.366743D-01
      1.510000D-01           6.911689D-02
P    1   1.00
      8.476000D-01           1.000000D+00
P    1   1.00
      3.660000D-01           1.000000D+00
P    1   1.00
      1.510000D-01           1.000000D+00
P    1   1.00
      0.0566                 1.0000
D    1   1.00
      1.331700D+01           1.000000D+00
D    1   1.00
      5.803000D+00           1.000000D+00
D    1   1.00
      2.529000D+00           1.000000D+00
D    1   1.00
      1.102000D+00           1.000000D+00
D    1   1.00
      4.800000D-01           1.000000D+00
D    1   1.00
      0.1870                 1.0000
F    1   1.00
      1.035600D+01           1.000000D+00
F    1   1.00
      4.538000D+00           1.000000D+00
F    1   1.00
      1.989000D+00           1.000000D+00
F    1   1.00
      8.710000D-01           1.000000D+00
F    1   1.00
      0.3492                 1.0000
G    1   1.00
      8.345000D+00           1.000000D+00
G    1   1.00
      3.417000D+00           1.000000D+00
G    1   1.00
      1.399000D+00           1.000000D+00
G    1   1.00
      0.6345                 1.0000
 ****

ne1010decccpv6z.wfx
