%chk=ne1010decpc4.chk
%mem=4GB
%NProcShared=1
#P SP CASSCF(10,10)/gen gfinput fchk=all density=current iop(5/33=1) iop(4/21=100) out=wfx

ne1010decpc4 neon CASSCF(10,10) dec-pc-4

0 1
Ne 0.0 0.0 0.0

Ne     0
S    11   1.00
      0.252260D+07           0.766530D-05
      0.377060D+06           0.598260D-04
      0.857130D+05           0.314410D-03
      0.242610D+05           0.133260D-02
      0.791170D+04           0.483320D-02
      0.285550D+04           0.157630D-01
      0.111360D+04           0.461230D-01
      0.461890D+03           0.123390D+00
      0.201350D+03           0.284280D+00
      0.911980D+02           0.545690D+00
      0.426800D+02           0.581410D+00
S    9   1.00
      0.242610D+05          -0.203210D-06
      0.791170D+04           0.212160D-05
      0.285550D+04           0.758350D-05
      0.111360D+04           0.110550D-03
      0.461890D+03           0.582830D-03
      0.201350D+03           0.387530D-02
      0.911980D+02           0.170860D-01
      0.426800D+02           0.749780D-01
      0.207420D+02           0.183910D+00
S    1   1.00
      0.102490D+02           0.100000D+01
S    1   1.00
      0.510130D+01           0.100000D+01
S    1   1.00
      0.230310D+01           0.100000D+01
S    1   1.00
      0.105310D+01           0.100000D+01
S    1   1.00
      0.472220D+00           0.100000D+01
S    1   1.00
      0.204660D+00           0.100000D+01
S    1   1.00
      0.816400D-01           0.100000D+01
P    5   1.00
      0.116990D+04           0.510640D-03
      0.277110D+03           0.447380D-02
      0.892640D+02           0.251100D-01
      0.331000D+02           0.105930D+00
      0.140310D+02           0.299580D+00
P    1   1.00
      0.629850D+01           0.100000D+01
P    1   1.00
      0.292340D+01           0.100000D+01
P    1   1.00
      0.135370D+01           0.100000D+01
P    1   1.00
      0.613620D+00           0.100000D+01
P    1   1.00
      0.263620D+00           0.100000D+01
P    1   1.00
      0.107550D+00           0.100000D+01
P    1   1.00
      0.405700D-01           0.100000D+01
D    1   1.00
      0.320000D+02           0.100000D+01
D    1   1.00
      0.101000D+02           0.100000D+01
D    1   1.00
      0.400000D+01           0.100000D+01
D    1   1.00
      0.185000D+01           0.100000D+01
D    1   1.00
      0.800000D+00           0.100000D+01
D    1   1.00
      0.300000D+00           0.100000D+01
D    1   1.00
      0.127100D+00           0.100000D+01
F    1   1.00
      0.360000D+01           0.100000D+01
F    1   1.00
      0.155000D+01           0.100000D+01
F    1   1.00
      0.700000D+00           0.100000D+01
F    1   1.00
      0.162300D+00           0.100000D+01
G    1   1.00
      0.420000D+01           0.100000D+01
G    1   1.00
      0.180000D+01           0.100000D+01
G    1   1.00
      0.202800D+00           0.100000D+01
 ****

ne1010decpc4.wfx
