%chk=228482_hf.chk
%mem=4GB
%NProcShared=1
#P SP HF/gen gfinput fchk=all out=wfx

228482 beryllium_atom HF 5SPD

2 1
Be    0.0000   0.0000   0.0000

   1 0
S   1 1.0 0.0
                 288.490355325003 1.0
P   1 1.0 0.0
                 288.490355325003 1.0
D   1 1.0 0.0
                 288.490355325003 1.0
S   1 1.0 0.0
                 76.91425612197271 1.0
P   1 1.0 0.0
                 76.91425612197271 1.0
D   1 1.0 0.0
                 76.91425612197271 1.0
S   1 1.0 0.0
                 20.50606783069709 1.0
P   1 1.0 0.0
                 20.50606783069709 1.0
D   1 1.0 0.0
                 20.50606783069709 1.0
S   1 1.0 0.0
                 5.467111548349524 1.0
P   1 1.0 0.0
                 5.467111548349524 1.0
D   1 1.0 0.0
                 5.467111548349524 1.0
S   1 1.0 0.0
                 1.4575836249479848 1.0
P   1 1.0 0.0
                 1.4575836249479848 1.0
D   1 1.0 0.0
                 1.4575836249479848 1.0
 ****

228482_hf.wfx

