%chk=231092_hf.chk
%mem=4GB
%NProcShared=1
#P SP HF/gen gfinput fchk=all out=wfx

231092 boron_atom HF 5SPD

3 1
B    0.0000   0.0000   0.0000

   1 0
S   1 1.0 0.0
                 458.626677665621 1.0
P   1 1.0 0.0
                 458.626677665621 1.0
D   1 1.0 0.0
                 458.626677665621 1.0
S   1 1.0 0.0
                 123.42935890329098 1.0
P   1 1.0 0.0
                 123.42935890329098 1.0
D   1 1.0 0.0
                 123.42935890329098 1.0
S   1 1.0 0.0
                 33.21831760163093 1.0
P   1 1.0 0.0
                 33.21831760163093 1.0
D   1 1.0 0.0
                 33.21831760163093 1.0
S   1 1.0 0.0
                 8.939985057747895 1.0
P   1 1.0 0.0
                 8.939985057747895 1.0
D   1 1.0 0.0
                 8.939985057747895 1.0
S   1 1.0 0.0
                 2.4060018268002716 1.0
P   1 1.0 0.0
                 2.4060018268002716 1.0
D   1 1.0 0.0
                 2.4060018268002716 1.0
 ****

231092_hf.wfx

