%chk=231092_hfl.chk
%mem=4GB
%NProcShared=1
#P SP CASSCF(2,2)/gen gfinput fchk=all density=current iop(5/33=1) out=wfx

231092 boron_atom CASSCF(2,2) 5SPD

3 1
B    0.0000   0.0000   0.0000

   1 0
S   1 1.0 0.0
                 458.626677665621 1.0
P   1 1.0 0.0
                 458.626677665621 1.0
D   1 1.0 0.0
                 458.626677665621 1.0
S   1 1.0 0.0
                 123.42935890329098 1.0
P   1 1.0 0.0
                 123.42935890329098 1.0
D   1 1.0 0.0
                 123.42935890329098 1.0
S   1 1.0 0.0
                 33.21831760163093 1.0
P   1 1.0 0.0
                 33.21831760163093 1.0
D   1 1.0 0.0
                 33.21831760163093 1.0
S   1 1.0 0.0
                 8.939985057747895 1.0
P   1 1.0 0.0
                 8.939985057747895 1.0
D   1 1.0 0.0
                 8.939985057747895 1.0
S   1 1.0 0.0
                 2.4060018268002716 1.0
P   1 1.0 0.0
                 2.4060018268002716 1.0
D   1 1.0 0.0
                 2.4060018268002716 1.0
 ****

231092_hfl.wfx

