%chk=244391.chk
%mem=4GB
%NProcShared=1
#P SP CASSCF(2,2)/gen gfinput fchk=all density=current iop(5/33=1) out=wfx

244391 helium CASSCF(2,2) 5SPD

0 1
He    0.0000   0.0000   0.0000

   1 0
S   1 1.0 0.0
                 63.8081045376565 1.0
P   1 1.0 0.0
                 63.8081045376565 1.0
D   1 1.0 0.0
                 63.8081045376565 1.0
S   1 1.0 0.0
                 16.216284230885638 1.0
P   1 1.0 0.0
                 16.216284230885638 1.0
D   1 1.0 0.0
                 16.216284230885638 1.0
S   1 1.0 0.0
                 4.121229993623759 1.0
P   1 1.0 0.0
                 4.121229993623759 1.0
D   1 1.0 0.0
                 4.121229993623759 1.0
S   1 1.0 0.0
                 1.0473753677797057 1.0
P   1 1.0 0.0
                 1.0473753677797057 1.0
D   1 1.0 0.0
                 1.0473753677797057 1.0
S   1 1.0 0.0
                 0.266181495021853 1.0
P   1 1.0 0.0
                 0.266181495021853 1.0
D   1 1.0 0.0
                 0.266181495021853 1.0
 ****

244391.wfx

