%chk=504885.chk
%mem=4GB
%NProcShared=1
#P SP CASSCF(2,2)/gen gfinput fchk=all density=current iop(5/33=1) out=wfx

504885 lithium_atom CASSCF(2,2) 5SPD

1 1
Li    0.0000   0.0000   0.0000

   1 0
S   1 1.0 0.0
                 161.2669 1.0
P   1 1.0 0.0
                 161.2669 1.0
D   1 1.0 0.0
                 161.2669 1.0
S   1 1.0 0.0
                 42.09316053695 1.0
P   1 1.0 0.0
                 42.09316053695 1.0
D   1 1.0 0.0
                 42.09316053695 1.0
S   1 1.0 0.0
                 10.986967344132273 1.0
P   1 1.0 0.0
                 10.986967344132273 1.0
D   1 1.0 0.0
                 10.986967344132273 1.0
S   1 1.0 0.0
                 2.8677687748123577 1.0
P   1 1.0 0.0
                 2.8677687748123577 1.0
D   1 1.0 0.0
                 2.8677687748123577 1.0
S   1 1.0 0.0
                 0.7485321006420349 1.0
P   1 1.0 0.0
                 0.7485321006420349 1.0
D   1 1.0 0.0
                 0.7485321006420349 1.0
 ****

504885.wfx

