%chk=CALC_000002.chk
%mem=4GB
%NProcShared=1
#P SP CISD/gen gfinput fchk=all density=rhoci iop(9/40=7) iop(9/28=-1) use=l916 out=wfx

CALC_000002 harmonium_omega_0.03653726559926414 CISD 8SPDF

-2 1
H-Bq 0.000000 0.000000 0.000000

   1 0
S   1 1.0 0.0
                 0.0158004028 1.0
P   1 1.0 0.0
                 0.0158004028 1.0
D   1 1.0 0.0
                 0.0158004028 1.0
F   1 1.0 0.0
                 0.0158004028 1.0
S   1 1.0 0.0
                 0.02213379796449577 1.0
P   1 1.0 0.0
                 0.02213379796449577 1.0
D   1 1.0 0.0
                 0.02213379796449577 1.0
F   1 1.0 0.0
                 0.02213379796449577 1.0
S   1 1.0 0.0
                 0.031005855897111512 1.0
P   1 1.0 0.0
                 0.031005855897111512 1.0
D   1 1.0 0.0
                 0.031005855897111512 1.0
F   1 1.0 0.0
                 0.031005855897111512 1.0
S   1 1.0 0.0
                 0.04343416802911734 1.0
P   1 1.0 0.0
                 0.04343416802911734 1.0
D   1 1.0 0.0
                 0.04343416802911734 1.0
F   1 1.0 0.0
                 0.04343416802911734 1.0
S   1 1.0 0.0
                 0.06084421467485911 1.0
P   1 1.0 0.0
                 0.06084421467485911 1.0
D   1 1.0 0.0
                 0.06084421467485911 1.0
F   1 1.0 0.0
                 0.06084421467485911 1.0
S   1 1.0 0.0
                 0.08523286222309095 1.0
P   1 1.0 0.0
                 0.08523286222309095 1.0
D   1 1.0 0.0
                 0.08523286222309095 1.0
F   1 1.0 0.0
                 0.08523286222309095 1.0
S   1 1.0 0.0
                 0.11939739614622984 1.0
P   1 1.0 0.0
                 0.11939739614622984 1.0
D   1 1.0 0.0
                 0.11939739614622984 1.0
F   1 1.0 0.0
                 0.11939739614622984 1.0
S   1 1.0 0.0
                 0.16725635904595532 1.0
P   1 1.0 0.0
                 0.16725635904595532 1.0
D   1 1.0 0.0
                 0.16725635904595532 1.0
F   1 1.0 0.0
                 0.16725635904595532 1.0
 ****

    0.0000000000D+00    0.0000000000D+00    0.0000000000D+00
   -0.0006674859   -0.0006674859   -0.0006674859
    0.0000000000D+00    0.0000000000D+00    0.0000000000D+00
    0.0000000000D+00    0.0000000000D+00    0.0000000000D+00
    0.0000000000D+00    0.0000000000D+00    0.0000000000D+00
    0.0000000000D+00    0.0000000000D+00    0.0000000000D+00
    0.0000000000D+00    0.0000000000D+00    0.0000000000D+00
    0.0000000000D+00    0.0000000000D+00    0.0000000000D+00
    0.0000000000D+00    0.0000000000D+00    0.0000000000D+00
    0.0000000000D+00    0.0000000000D+00    0.0000000000D+00
    0.0000000000D+00    0.0000000000D+00    0.0000000000D+00

CALC_000002.wfx

