%chk=CALC_000005.chk
%mem=4GB
%NProcShared=1
#P SP CISD/cc-pVQZ gfinput fchk=all density=rhoci iop(9/40=7) iop(9/28=-1) use=l916 out=wfx

CALC_000005 harmonium_omega_0.1 CISD cc-pVQZ

-2 1
H-Bq 0.000000 0.000000 0.000000

CALC_000005.wfx

    0.0000000000D+00    0.0000000000D+00    0.0000000000D+00
   -0.0050000000   -0.0050000000   -0.0050000000
    0.0000000000D+00    0.0000000000D+00    0.0000000000D+00
    0.0000000000D+00    0.0000000000D+00    0.0000000000D+00
    0.0000000000D+00    0.0000000000D+00    0.0000000000D+00
    0.0000000000D+00    0.0000000000D+00    0.0000000000D+00
    0.0000000000D+00    0.0000000000D+00    0.0000000000D+00
    0.0000000000D+00    0.0000000000D+00    0.0000000000D+00
    0.0000000000D+00    0.0000000000D+00    0.0000000000D+00
    0.0000000000D+00    0.0000000000D+00    0.0000000000D+00
    0.0000000000D+00    0.0000000000D+00    0.0000000000D+00
