%chk=CALC_000001.chk
%mem=4GB
%NProcShared=1
#P SP CISD/gen gfinput fchk=all density=rhoci iop(9/40=7) iop(9/28=-1) use=l916 out=wfx

CALC_000001 harmonium_omega_0.5 CISD 8SPDF

-2 1
H-Bq 0.000000 0.000000 0.000000

   1 0
S   1 1.0 0.0
                 0.2372154041 1.0
P   1 1.0 0.0
                 0.2372154041 1.0
D   1 1.0 0.0
                 0.2372154041 1.0
F   1 1.0 0.0
                 0.2372154041 1.0
S   1 1.0 0.0
                 0.35523112080497954 1.0
P   1 1.0 0.0
                 0.35523112080497954 1.0
D   1 1.0 0.0
                 0.35523112080497954 1.0
F   1 1.0 0.0
                 0.35523112080497954 1.0
S   1 1.0 0.0
                 0.5319601805250639 1.0
P   1 1.0 0.0
                 0.5319601805250639 1.0
D   1 1.0 0.0
                 0.5319601805250639 1.0
F   1 1.0 0.0
                 0.5319601805250639 1.0
S   1 1.0 0.0
                 0.7966127320798967 1.0
P   1 1.0 0.0
                 0.7966127320798967 1.0
D   1 1.0 0.0
                 0.7966127320798967 1.0
F   1 1.0 0.0
                 0.7966127320798967 1.0
S   1 1.0 0.0
                 1.1929311030111918 1.0
P   1 1.0 0.0
                 1.1929311030111918 1.0
D   1 1.0 0.0
                 1.1929311030111918 1.0
F   1 1.0 0.0
                 1.1929311030111918 1.0
S   1 1.0 0.0
                 1.7864196230154776 1.0
P   1 1.0 0.0
                 1.7864196230154776 1.0
D   1 1.0 0.0
                 1.7864196230154776 1.0
F   1 1.0 0.0
                 1.7864196230154776 1.0
S   1 1.0 0.0
                 2.6751713166328774 1.0
P   1 1.0 0.0
                 2.6751713166328774 1.0
D   1 1.0 0.0
                 2.6751713166328774 1.0
F   1 1.0 0.0
                 2.6751713166328774 1.0
S   1 1.0 0.0
                 4.006080923615829 1.0
P   1 1.0 0.0
                 4.006080923615829 1.0
D   1 1.0 0.0
                 4.006080923615829 1.0
F   1 1.0 0.0
                 4.006080923615829 1.0
 ****

    0.0000000000D+00    0.0000000000D+00    0.0000000000D+00
   -0.1250000000   -0.1250000000   -0.1250000000
    0.0000000000D+00    0.0000000000D+00    0.0000000000D+00
    0.0000000000D+00    0.0000000000D+00    0.0000000000D+00
    0.0000000000D+00    0.0000000000D+00    0.0000000000D+00
    0.0000000000D+00    0.0000000000D+00    0.0000000000D+00
    0.0000000000D+00    0.0000000000D+00    0.0000000000D+00
    0.0000000000D+00    0.0000000000D+00    0.0000000000D+00
    0.0000000000D+00    0.0000000000D+00    0.0000000000D+00
    0.0000000000D+00    0.0000000000D+00    0.0000000000D+00
    0.0000000000D+00    0.0000000000D+00    0.0000000000D+00

CALC_000001.wfx

