%chk=CALC_000129.chk
%mem=4GB
%NProcShared=1
#P SP CASSCF(4,4)/TZVP gfinput fchk=all density=current iop(5/33=1) out=wfx

CALC_000129 butadiene CASSCF(4,4) TZVP

0 1
C       -2.68000000   -1.24500000    0.00000000
C       -1.34000000    0.00000000    0.00000000
C        1.34000000    0.00000000    0.00000000
C        2.68000000    1.24500000    0.00000000
H       -3.59700000   -0.66100000    0.00000000
H       -2.68000000   -2.33100000    0.00000000
H       -1.34000000    1.08600000    0.00000000
H        1.34000000    1.08600000    0.00000000
H        2.68000000    2.33100000    0.00000000
H        3.59700000    0.66100000    0.00000000

CALC_000129.wfx

