%chk=CALC_000001.chk
%mem=4GB
%NProcShared=1
#P SP HF/TZVP gfinput fchk=all out=wfx

CALC_000001 ethene HF TZVP

0 1
C        0.66900000    0.00000000    0.00000000
C       -0.66900000    0.00000000    0.00000000
H        1.23600000    0.93400000    0.00000000
H        1.23600000   -0.93400000    0.00000000
H       -1.23600000    0.93400000    0.00000000
H       -1.23600000   -0.93400000    0.00000000


CALC_000001.wfx

